packages/py-dss-toolkit/py_dss_toolkit-0.4.0.tar.gz/py_dss_toolkit-0.4.0/examples/feeders/1_3PAS_1/CargasBT_DU03_202312598_1_3PAS_1_------1-----.dss
New "Load.BT_2806086_M1" bus1="UC2806086.1.4" phases=1 conn=Wye model=2 kv=0.220000000 kw = 0.0262225 pf=0.92 status=variable vmaxpu=1.5 vminpu=0.5 daily="RU2_DU"  
New "Load.BT_2806086_M2" bus1="UC2806086.1.4" phases=1 conn=Wye model=3 kv=0.220000000 kw = 0.0262225 pf=0.92 status=variable vmaxpu=1.5 vminpu=0.5 daily="RU2_DU" 
New "Load.BT_2805327_M1" bus1="UC2805327.1.4" phases=1 conn=Wye model=2 kv=0.220000000 kw = 0.310867 pf=0.92 status=variable vmaxpu=1.5 vminpu=0.5 daily="RU5_DU"  
New "Load.BT_2805327_M2" bus1="UC2805327.1.4" phases=1 conn=Wye model=3 kv=0.220000000 kw = 0.310867 pf=0.92 status=variable vmaxpu=1.5 vminpu=0.5 daily="RU5_DU" 
New "Load.BT_2830102_M1" bus1="UC2830102.1.4" phases=1 conn=Wye model=2 kv=0.220000000 kw = 0.1351785 pf=0.92 status=variable vmaxpu=1.5 vminpu=0.5 daily="RU4_DU"  
New "Load.BT_2830102_M2" bus1="UC2830102.1.4" phases=1 conn=Wye model=3 kv=0.220000000 kw = 0.1351785 pf=0.92 status=variable vmaxpu=1.5 vminpu=0.5 daily="RU4_DU" 
New "Load.BT_2836303_M1" bus1="UC2836303.1.4" phases=1 conn=Wye model=2 kv=0.220000000 kw = 0.2649145 pf=0.92 status=variable vmaxpu=1.5 vminpu=0.5 daily="RU6_DU"  
New "Load.BT_2836303_M2" bus1="UC2836303.1.4" phases=1 conn=Wye model=3 kv=0.220000000 kw = 0.2649145 pf=0.92 status=variable vmaxpu=1.5 vminpu=0.5 daily="RU6_DU" 
New "Load.BT_2834139_M1" bus1="UC2834139.1.2.4" phases=1 conn=Delta model=2 kv=0.440000000 kw = 0.7210575 pf=0.92 status=variable vmaxpu=1.5 vminpu=0.5 daily="RU1_DU"  
New "Load.BT_2834139_M2" bus1="UC2834139.1.2.4" phases=1 conn=Delta model=3 kv=0.440000000 kw = 0.7210575 pf=0.92 status=variable vmaxpu=1.5 vminpu=0.5 daily="RU1_DU" 
New "Load.BT_2805332_M1" bus1="UC2805332.1.2.4" phases=1 conn=Delta model=2 kv=0.440000000 kw = 0.229668 pf=0.92 status=variable vmaxpu=1.5 vminpu=0.5 daily="RU6_DU"  
New "Load.BT_2805332_M2" bus1="UC2805332.1.2.4" phases=1 conn=Delta model=3 kv=0.440000000 kw = 0.229668 pf=0.92 status=variable vmaxpu=1.5 vminpu=0.5 daily="RU6_DU" 
New "Load.BT_2807373_M1" bus1="UC2807373.2.4" phases=1 conn=Wye model=2 kv=0.220000000 kw = 0.202768 pf=0.92 status=variable vmaxpu=1.5 vminpu=0.5 daily="RU4_DU"  
New "Load.BT_2807373_M2" bus1="UC2807373.2.4" phases=1 conn=Wye model=3 kv=0.220000000 kw = 0.202768 pf=0.92 status=variable vmaxpu=1.5 vminpu=0.5 daily="RU4_DU" 
New "Load.BT_2818343_M1" bus1="UC2818343.2.4" phases=1 conn=Wye model=2 kv=0.219393102 kw = 0.1272545 pf=0.92 status=variable vmaxpu=1.5 vminpu=0.5 daily="RU7_DU"  
New "Load.BT_2818343_M2" bus1="UC2818343.2.4" phases=1 conn=Wye model=3 kv=0.219393102 kw = 0.1272545 pf=0.92 status=variable vmaxpu=1.5 vminpu=0.5 daily="RU7_DU" 
New "Load.BT_2805262_M1" bus1="UC2805262.1.4" phases=1 conn=Wye model=2 kv=0.220000000 kw = 0.029724 pf=0.92 status=variable vmaxpu=1.5 vminpu=0.5 daily="RU5_DU"  
New "Load.BT_2805262_M2" bus1="UC2805262.1.4" phases=1 conn=Wye model=3 kv=0.220000000 kw = 0.029724 pf=0.92 status=variable vmaxpu=1.5 vminpu=0.5 daily="RU5_DU" 
New "Load.BT_2826215_M1" bus1="UC2826215.1.4" phases=1 conn=Wye model=2 kv=0.219393102 kw = 0.4241825 pf=0.92 status=variable vmaxpu=1.5 vminpu=0.5 daily="RU7_DU"  
New "Load.BT_2826215_M2" bus1="UC2826215.1.4" phases=1 conn=Wye model=3 kv=0.219393102 kw = 0.4241825 pf=0.92 status=variable vmaxpu=1.5 vminpu=0.5 daily="RU7_DU" 
New "Load.BT_2805278_M1" bus1="UC2805278.2.4" phases=1 conn=Wye model=2 kv=0.220000000 kw = 0.455708 pf=0.92 status=variable vmaxpu=1.5 vminpu=0.5 daily="RU1_DU"  
New "Load.BT_2805278_M2" bus1="UC2805278.2.4" phases=1 conn=Wye model=3 kv=0.220000000 kw = 0.455708 pf=0.92 status=variable vmaxpu=1.5 vminpu=0.5 daily="RU1_DU" 
New "Load.BT_2817035_M1" bus1="UC2817035.2.4" phases=1 conn=Wye model=2 kv=0.220000000 kw = 0.3129385 pf=0.92 status=variable vmaxpu=1.5 vminpu=0.5 daily="RU1_DU"  
New "Load.BT_2817035_M2" bus1="UC2817035.2.4" phases=1 conn=Wye model=3 kv=0.220000000 kw = 0.3129385 pf=0.92 status=variable vmaxpu=1.5 vminpu=0.5 daily="RU1_DU" 
New "Load.BT_2818350_M1" bus1="UC2818350.1.2.3.4" phases=3 conn=Delta model=2 kv=0.380000000 kw = 5.404682 pf=0.92 status=variable vmaxpu=1.5 vminpu=0.5 daily="RE8_DU"  
New "Load.BT_2818350_M2" bus1="UC2818350.1.2.3.4" phases=3 conn=Delta model=3 kv=0.380000000 kw = 5.404682 pf=0.92 status=variable vmaxpu=1.5 vminpu=0.5 daily="RE8_DU" 
New "Load.BT_2805378_M1" bus1="UC2805378.1.4" phases=1 conn=Wye model=2 kv=0.220000000 kw = 0.403625 pf=0.92 status=variable vmaxpu=1.5 vminpu=0.5 daily="RU6_DU"  
New "Load.BT_2805378_M2" bus1="UC2805378.1.4" phases=1 conn=Wye model=3 kv=0.220000000 kw = 0.403625 pf=0.92 status=variable vmaxpu=1.5 vminpu=0.5 daily="RU6_DU" 
New "Load.BT_2805372_M1" bus1="UC2805372.2.4" phases=1 conn=Wye model=2 kv=0.220000000 kw = 0.1432585 pf=0.92 status=variable vmaxpu=1.5 vminpu=0.5 daily="RU6_DU"  
New "Load.BT_2805372_M2" bus1="UC2805372.2.4" phases=1 conn=Wye model=3 kv=0.220000000 kw = 0.1432585 pf=0.92 status=variable vmaxpu=1.5 vminpu=0.5 daily="RU6_DU" 
New "Load.BT_2805353_M1" bus1="UC2805353.1.4" phases=1 conn=Wye model=2 kv=0.220000000 kw = 0.1333145 pf=0.92 status=variable vmaxpu=1.5 vminpu=0.5 daily="RU7_DU"  
New "Load.BT_2805353_M2" bus1="UC2805353.1.4" phases=1 conn=Wye model=3 kv=0.220000000 kw = 0.1333145 pf=0.92 status=variable vmaxpu=1.5 vminpu=0.5 daily="RU7_DU" 
New "Load.BT_2805390_M1" bus1="UC2805390.1.2.4" phases=1 conn=Delta model=2 kv=0.440000000 kw = 0.2978865 pf=0.92 status=variable vmaxpu=1.5 vminpu=0.5 daily="RU6_DU"  
New "Load.BT_2805390_M2" bus1="UC2805390.1.2.4" phases=1 conn=Delta model=3 kv=0.440000000 kw = 0.2978865 pf=0.92 status=variable vmaxpu=1.5 vminpu=0.5 daily="RU6_DU" 
New "Load.BT_2806072_M1" bus1="UC2806072.1.4" phases=1 conn=Wye model=2 kv=0.220000000 kw = 0.086696 pf=0.92 status=variable vmaxpu=1.5 vminpu=0.5 daily="RU5_DU"  
New "Load.BT_2806072_M2" bus1="UC2806072.1.4" phases=1 conn=Wye model=3 kv=0.220000000 kw = 0.086696 pf=0.92 status=variable vmaxpu=1.5 vminpu=0.5 daily="RU5_DU" 
New "Load.BT_2819400_M1" bus1="UC2819400.2.4" phases=1 conn=Wye model=2 kv=0.220000000 kw = 0.226648 pf=0.92 status=variable vmaxpu=1.5 vminpu=0.5 daily="RU5_DU"  
New "Load.BT_2819400_M2" bus1="UC2819400.2.4" phases=1 conn=Wye model=3 kv=0.220000000 kw = 0.226648 pf=0.92 status=variable vmaxpu=1.5 vminpu=0.5 daily="RU5_DU" 
New "Load.BT_2805341_M1" bus1="UC2805341.1.2.4" phases=1 conn=Delta model=2 kv=0.440000000 kw = 0.2898125 pf=0.92 status=variable vmaxpu=1.5 vminpu=0.5 daily="RU5_DU"  
New "Load.BT_2805341_M2" bus1="UC2805341.1.2.4" phases=1 conn=Delta model=3 kv=0.440000000 kw = 0.2898125 pf=0.92 status=variable vmaxpu=1.5 vminpu=0.5 daily="RU5_DU" 
New "Load.BT_2805345_M1" bus1="UC2805345.1.4" phases=1 conn=Wye model=2 kv=0.220000000 kw = 0.25843 pf=0.92 status=variable vmaxpu=1.5 vminpu=0.5 daily="RU4_DU"  
New "Load.BT_2805345_M2" bus1="UC2805345.1.4" phases=1 conn=Wye model=3 kv=0.220000000 kw = 0.25843 pf=0.92 status=variable vmaxpu=1.5 vminpu=0.5 daily="RU4_DU" 
New "Load.BT_2805244_M1" bus1="UC2805244.1.2.4" phases=1 conn=Delta model=2 kv=0.440000000 kw = 0.970543 pf=0.92 status=variable vmaxpu=1.5 vminpu=0.5 daily="RU1_DU"  
New "Load.BT_2805244_M2" bus1="UC2805244.1.2.4" phases=1 conn=Delta model=3 kv=0.440000000 kw = 0.970543 pf=0.92 status=variable vmaxpu=1.5 vminpu=0.5 daily="RU1_DU" 
New "Load.BT_2805410_M1" bus1="UC2805410.2.4" phases=1 conn=Wye model=2 kv=0.220000000 kw = 0.1716115 pf=0.92 status=variable vmaxpu=1.5 vminpu=0.5 daily="RU1_DU"  
New "Load.BT_2805410_M2" bus1="UC2805410.2.4" phases=1 conn=Wye model=3 kv=0.220000000 kw = 0.1716115 pf=0.92 status=variable vmaxpu=1.5 vminpu=0.5 daily="RU1_DU" 
New "Load.BT_2805776_M1" bus1="UC2805776.2.4" phases=1 conn=Wye model=2 kv=0.220000000 kw = 0.054318 pf=0.92 status=variable vmaxpu=1.5 vminpu=0.5 daily="RU2_DU"  
New "Load.BT_2805776_M2" bus1="UC2805776.2.4" phases=1 conn=Wye model=3 kv=0.220000000 kw = 0.054318 pf=0.92 status=variable vmaxpu=1.5 vminpu=0.5 daily="RU2_DU" 
New "Load.BT_2805421_M1" bus1="UC2805421.1.4" phases=1 conn=Wye model=2 kv=0.219393102 kw = 0.3554535 pf=0.92 status=variable vmaxpu=1.5 vminpu=0.5 daily="RU5_DU"  
New "Load.BT_2805421_M2" bus1="UC2805421.1.4" phases=1 conn=Wye model=3 kv=0.219393102 kw = 0.3554535 pf=0.92 status=variable vmaxpu=1.5 vminpu=0.5 daily="RU5_DU" 
New "Load.BT_2805426_M1" bus1="UC2805426.1.4" phases=1 conn=Wye model=2 kv=0.219393102 kw = 0.2945035 pf=0.92 status=variable vmaxpu=1.5 vminpu=0.5 daily="RU7_DU"  
New "Load.BT_2805426_M2" bus1="UC2805426.1.4" phases=1 conn=Wye model=3 kv=0.219393102 kw = 0.2945035 pf=0.92 status=variable vmaxpu=1.5 vminpu=0.5 daily="RU7_DU" 
New "Load.BT_2805220_M1" bus1="UC2805220.2.4" phases=1 conn=Wye model=2 kv=0.220000000 kw = 0.231602 pf=0.92 status=variable vmaxpu=1.5 vminpu=0.5 daily="RU5_DU"  
New "Load.BT_2805220_M2" bus1="UC2805220.2.4" phases=1 conn=Wye model=3 kv=0.220000000 kw = 0.231602 pf=0.92 status=variable vmaxpu=1.5 vminpu=0.5 daily="RU5_DU" 
New "Load.BT_2805266_M1" bus1="UC2805266.1.2.3.4" phases=3 conn=Delta model=2 kv=0.380000000 kw = 0.3938475 pf=0.92 status=variable vmaxpu=1.5 vminpu=0.5 daily="RU5_DU"  
New "Load.BT_2805266_M2" bus1="UC2805266.1.2.3.4" phases=3 conn=Delta model=3 kv=0.380000000 kw = 0.3938475 pf=0.92 status=variable vmaxpu=1.5 vminpu=0.5 daily="RU5_DU" 
New "Load.BT_2817049_M1" bus1="UC2817049.3.4" phases=1 conn=Wye model=2 kv=0.219393102 kw = 0.0618375 pf=0.92 status=variable vmaxpu=1.5 vminpu=0.5 daily="RU8_DU"  
New "Load.BT_2817049_M2" bus1="UC2817049.3.4" phases=1 conn=Wye model=3 kv=0.219393102 kw = 0.0618375 pf=0.92 status=variable vmaxpu=1.5 vminpu=0.5 daily="RU8_DU" 
New "Load.BT_2805218_M1" bus1="UC2805218.1.2.4" phases=1 conn=Delta model=2 kv=0.440000000 kw = 0.244162 pf=0.92 status=variable vmaxpu=1.5 vminpu=0.5 daily="RU3_DU"  
New "Load.BT_2805218_M2" bus1="UC2805218.1.2.4" phases=1 conn=Delta model=3 kv=0.440000000 kw = 0.244162 pf=0.92 status=variable vmaxpu=1.5 vminpu=0.5 daily="RU3_DU" 
New "Load.BT_2826225_M1" bus1="UC2826225.1.2.3.4" phases=3 conn=Delta model=2 kv=0.380000000 kw = 0.0315105 pf=0.92 status=variable vmaxpu=1.5 vminpu=0.5 daily="RU7_DU"  
New "Load.BT_2826225_M2" bus1="UC2826225.1.2.3.4" phases=3 conn=Delta model=3 kv=0.380000000 kw = 0.0315105 pf=0.92 status=variable vmaxpu=1.5 vminpu=0.5 daily="RU7_DU" 
New "Load.BT_2817022_M1" bus1="UC2817022.2.4" phases=1 conn=Wye model=2 kv=0.219393102 kw = 0.4056565 pf=0.92 status=variable vmaxpu=1.5 vminpu=0.5 daily="RE6_DU"  
New "Load.BT_2817022_M2" bus1="UC2817022.2.4" phases=1 conn=Wye model=3 kv=0.219393102 kw = 0.4056565 pf=0.92 status=variable vmaxpu=1.5 vminpu=0.5 daily="RE6_DU" 
New "Load.BT_2832901_M1" bus1="UC2832901.1.4" phases=1 conn=Wye model=2 kv=0.220000000 kw = 0.009102 pf=0.92 status=variable vmaxpu=1.5 vminpu=0.5 daily="CO6_DU"  
New "Load.BT_2832901_M2" bus1="UC2832901.1.4" phases=1 conn=Wye model=3 kv=0.220000000 kw = 0.009102 pf=0.92 status=variable vmaxpu=1.5 vminpu=0.5 daily="CO6_DU" 
New "Load.BT_2838192_M1" bus1="UC2838192.1.4" phases=1 conn=Wye model=2 kv=0.219393102 kw = 0.194056 pf=0.92 status=variable vmaxpu=1.5 vminpu=0.5 daily="RE5_DU"  
New "Load.BT_2838192_M2" bus1="UC2838192.1.4" phases=1 conn=Wye model=3 kv=0.219393102 kw = 0.194056 pf=0.92 status=variable vmaxpu=1.5 vminpu=0.5 daily="RE5_DU" 
New "Load.BT_2806076_M1" bus1="UC2806076.2.4" phases=1 conn=Wye model=2 kv=0.220000000 kw = 0.5186285 pf=0.92 status=variable vmaxpu=1.5 vminpu=0.5 daily="RU3_DU"  
New "Load.BT_2806076_M2" bus1="UC2806076.2.4" phases=1 conn=Wye model=3 kv=0.220000000 kw = 0.5186285 pf=0.92 status=variable vmaxpu=1.5 vminpu=0.5 daily="RU3_DU" 
New "Load.BT_2805391_M1" bus1="UC2805391.1.4" phases=1 conn=Wye model=2 kv=0.220000000 kw = 0.2754435 pf=0.92 status=variable vmaxpu=1.5 vminpu=0.5 daily="RU1_DU"  
New "Load.BT_2805391_M2" bus1="UC2805391.1.4" phases=1 conn=Wye model=3 kv=0.220000000 kw = 0.2754435 pf=0.92 status=variable vmaxpu=1.5 vminpu=0.5 daily="RU1_DU" 
New "Load.BT_2805329_M1" bus1="UC2805329.1.4" phases=1 conn=Wye model=2 kv=0.220000000 kw = 0.27401 pf=0.92 status=variable vmaxpu=1.5 vminpu=0.5 daily="RU6_DU"  
New "Load.BT_2805329_M2" bus1="UC2805329.1.4" phases=1 conn=Wye model=3 kv=0.220000000 kw = 0.27401 pf=0.92 status=variable vmaxpu=1.5 vminpu=0.5 daily="RU6_DU" 
New "Load.BT_2834953_M1" bus1="UC2834953.3.4" phases=1 conn=Wye model=2 kv=0.219393102 kw = 0.3129385 pf=0.92 status=variable vmaxpu=1.5 vminpu=0.5 daily="RU1_DU"  
New "Load.BT_2834953_M2" bus1="UC2834953.3.4" phases=1 conn=Wye model=3 kv=0.219393102 kw = 0.3129385 pf=0.92 status=variable vmaxpu=1.5 vminpu=0.5 daily="RU1_DU" 
New "Load.BT_2831809_M1" bus1="UC2831809.1.2.3.4" phases=3 conn=Delta model=2 kv=0.380000000 kw = 1.682269 pf=0.92 status=variable vmaxpu=1.5 vminpu=0.5 daily="RU8_DU"  
New "Load.BT_2831809_M2" bus1="UC2831809.1.2.3.4" phases=3 conn=Delta model=3 kv=0.380000000 kw = 1.682269 pf=0.92 status=variable vmaxpu=1.5 vminpu=0.5 daily="RU8_DU" 
New "Load.BT_2805792_M1" bus1="UC2805792.1.4" phases=1 conn=Wye model=2 kv=0.219393102 kw = 0.0412065 pf=0.92 status=variable vmaxpu=1.5 vminpu=0.5 daily="RU2_DU"  
New "Load.BT_2805792_M2" bus1="UC2805792.1.4" phases=1 conn=Wye model=3 kv=0.219393102 kw = 0.0412065 pf=0.92 status=variable vmaxpu=1.5 vminpu=0.5 daily="RU2_DU" 
New "Load.BT_2805230_M1" bus1="UC2805230.2.4" phases=1 conn=Wye model=2 kv=0.220000000 kw = 0.262225 pf=0.92 status=variable vmaxpu=1.5 vminpu=0.5 daily="RU2_DU"  
New "Load.BT_2805230_M2" bus1="UC2805230.2.4" phases=1 conn=Wye model=3 kv=0.220000000 kw = 0.262225 pf=0.92 status=variable vmaxpu=1.5 vminpu=0.5 daily="RU2_DU" 
New "Load.BT_2821681_M1" bus1="UC2821681.1.4" phases=1 conn=Wye model=2 kv=0.219393102 kw = 0.303038 pf=0.92 status=variable vmaxpu=1.5 vminpu=0.5 daily="RU3_DU"  
New "Load.BT_2821681_M2" bus1="UC2821681.1.4" phases=1 conn=Wye model=3 kv=0.219393102 kw = 0.303038 pf=0.92 status=variable vmaxpu=1.5 vminpu=0.5 daily="RU3_DU" 
New "Load.BT_2818310_M1" bus1="UC2818310.1.4" phases=1 conn=Wye model=2 kv=0.220000000 kw = 0.28602 pf=0.92 status=variable vmaxpu=1.5 vminpu=0.5 daily="RU7_DU"  
New "Load.BT_2818310_M2" bus1="UC2818310.1.4" phases=1 conn=Wye model=3 kv=0.220000000 kw = 0.28602 pf=0.92 status=variable vmaxpu=1.5 vminpu=0.5 daily="RU7_DU" 
New "Load.BT_2837351_M1" bus1="UC2837351.1.2.3.4" phases=3 conn=Delta model=2 kv=0.380000000 kw = 0.5585705 pf=0.92 status=variable vmaxpu=1.5 vminpu=0.5 daily="RU5_DU"  
New "Load.BT_2837351_M2" bus1="UC2837351.1.2.3.4" phases=3 conn=Delta model=3 kv=0.380000000 kw = 0.5585705 pf=0.92 status=variable vmaxpu=1.5 vminpu=0.5 daily="RU5_DU" 
New "Load.BT_2828396_M1" bus1="UC2828396.1.4" phases=1 conn=Wye model=2 kv=0.220000000 kw = 0.3427655 pf=0.92 status=variable vmaxpu=1.5 vminpu=0.5 daily="RU2_DU"  
New "Load.BT_2828396_M2" bus1="UC2828396.1.4" phases=1 conn=Wye model=3 kv=0.220000000 kw = 0.3427655 pf=0.92 status=variable vmaxpu=1.5 vminpu=0.5 daily="RU2_DU" 
New "Load.BT_2825299_M1" bus1="UC2825299.1.4" phases=1 conn=Wye model=2 kv=0.220000000 kw = 0.5298375 pf=0.92 status=variable vmaxpu=1.5 vminpu=0.5 daily="RU8_DU"  
New "Load.BT_2825299_M2" bus1="UC2825299.1.4" phases=1 conn=Wye model=3 kv=0.220000000 kw = 0.5298375 pf=0.92 status=variable vmaxpu=1.5 vminpu=0.5 daily="RU8_DU" 
New "Load.BT_2819372_M1" bus1="UC2819372.2.4" phases=1 conn=Wye model=2 kv=0.220000000 kw = 0.4497295 pf=0.92 status=variable vmaxpu=1.5 vminpu=0.5 daily="RU8_DU"  
New "Load.BT_2819372_M2" bus1="UC2819372.2.4" phases=1 conn=Wye model=3 kv=0.220000000 kw = 0.4497295 pf=0.92 status=variable vmaxpu=1.5 vminpu=0.5 daily="RU8_DU" 
New "Load.BT_2820643_M1" bus1="UC2820643.2.4" phases=1 conn=Wye model=2 kv=0.220000000 kw = 0.2080705 pf=0.92 status=variable vmaxpu=1.5 vminpu=0.5 daily="RU5_DU"  
New "Load.BT_2820643_M2" bus1="UC2820643.2.4" phases=1 conn=Wye model=3 kv=0.220000000 kw = 0.2080705 pf=0.92 status=variable vmaxpu=1.5 vminpu=0.5 daily="RU5_DU" 
New "Load.BT_2805351_M1" bus1="UC2805351.1.4" phases=1 conn=Wye model=2 kv=0.220000000 kw = 0.573405 pf=0.92 status=variable vmaxpu=1.5 vminpu=0.5 daily="RU8_DU"  
New "Load.BT_2805351_M2" bus1="UC2805351.1.4" phases=1 conn=Wye model=3 kv=0.220000000 kw = 0.573405 pf=0.92 status=variable vmaxpu=1.5 vminpu=0.5 daily="RU8_DU" 
New "Load.BT_2818334_M1" bus1="UC2818334.1.2.3.4" phases=3 conn=Delta model=2 kv=0.380000000 kw = 1.792474 pf=0.92 status=variable vmaxpu=1.5 vminpu=0.5 daily="RU7_DU"  
New "Load.BT_2818334_M2" bus1="UC2818334.1.2.3.4" phases=3 conn=Delta model=3 kv=0.380000000 kw = 1.792474 pf=0.92 status=variable vmaxpu=1.5 vminpu=0.5 daily="RU7_DU" 
New "Load.BT_2819397_M1" bus1="UC2819397.1.4" phases=1 conn=Wye model=2 kv=0.219393102 kw = 1.074285 pf=0.92 status=variable vmaxpu=1.5 vminpu=0.5 daily="RE5_DU"  
New "Load.BT_2819397_M2" bus1="UC2819397.1.4" phases=1 conn=Wye model=3 kv=0.219393102 kw = 1.074285 pf=0.92 status=variable vmaxpu=1.5 vminpu=0.5 daily="RE5_DU" 
New "Load.BT_2818317_M1" bus1="UC2818317.1.2.4" phases=1 conn=Delta model=2 kv=0.440000000 kw = 0.615102 pf=0.92 status=variable vmaxpu=1.5 vminpu=0.5 daily="RU6_DU"  
New "Load.BT_2818317_M2" bus1="UC2818317.1.2.4" phases=1 conn=Delta model=3 kv=0.440000000 kw = 0.615102 pf=0.92 status=variable vmaxpu=1.5 vminpu=0.5 daily="RU6_DU" 
New "Load.BT_2836678_M1" bus1="UC2836678.2.4" phases=1 conn=Wye model=2 kv=0.220000000 kw = 0.2395445 pf=0.92 status=variable vmaxpu=1.5 vminpu=0.5 daily="RU4_DU"  
New "Load.BT_2836678_M2" bus1="UC2836678.2.4" phases=1 conn=Wye model=3 kv=0.220000000 kw = 0.2395445 pf=0.92 status=variable vmaxpu=1.5 vminpu=0.5 daily="RU4_DU" 
New "Load.BT_2805228_M1" bus1="UC2805228.1.4" phases=1 conn=Wye model=2 kv=0.220000000 kw = 0.6106095 pf=0.92 status=variable vmaxpu=1.5 vminpu=0.5 daily="RU2_DU"  
New "Load.BT_2805228_M2" bus1="UC2805228.1.4" phases=1 conn=Wye model=3 kv=0.220000000 kw = 0.6106095 pf=0.92 status=variable vmaxpu=1.5 vminpu=0.5 daily="RU2_DU" 
New "Load.BT_2805232_M1" bus1="UC2805232.1.2.3.4" phases=3 conn=Delta model=2 kv=0.380000000 kw = 1.1688075 pf=0.92 status=variable vmaxpu=1.5 vminpu=0.5 daily="RU6_DU"  
New "Load.BT_2805232_M2" bus1="UC2805232.1.2.3.4" phases=3 conn=Delta model=3 kv=0.380000000 kw = 1.1688075 pf=0.92 status=variable vmaxpu=1.5 vminpu=0.5 daily="RU6_DU" 
New "Load.BT_2838196_M1" bus1="UC2838196.1.4" phases=1 conn=Wye model=2 kv=0.219393102 kw = 0.0589065 pf=0.92 status=variable vmaxpu=1.5 vminpu=0.5 daily="RE4_DU"  
New "Load.BT_2838196_M2" bus1="UC2838196.1.4" phases=1 conn=Wye model=3 kv=0.219393102 kw = 0.0589065 pf=0.92 status=variable vmaxpu=1.5 vminpu=0.5 daily="RE4_DU" 
New "Load.BT_2805241_M1" bus1="UC2805241.1.4" phases=1 conn=Wye model=2 kv=0.219393102 kw = 0.3637895 pf=0.92 status=variable vmaxpu=1.5 vminpu=0.5 daily="RU4_DU"  
New "Load.BT_2805241_M2" bus1="UC2805241.1.4" phases=1 conn=Wye model=3 kv=0.219393102 kw = 0.3637895 pf=0.92 status=variable vmaxpu=1.5 vminpu=0.5 daily="RU4_DU" 
New "Load.BT_2818345_M1" bus1="UC2818345.1.4" phases=1 conn=Wye model=2 kv=0.220000000 kw = 0.051588 pf=0.92 status=variable vmaxpu=1.5 vminpu=0.5 daily="RE1_DU"  
New "Load.BT_2818345_M2" bus1="UC2818345.1.4" phases=1 conn=Wye model=3 kv=0.220000000 kw = 0.051588 pf=0.92 status=variable vmaxpu=1.5 vminpu=0.5 daily="RE1_DU" 
New "Load.BT_2836301_M1" bus1="UC2836301.1.2.4" phases=1 conn=Delta model=2 kv=0.380000000 kw = 0.3401075 pf=0.92 status=variable vmaxpu=1.5 vminpu=0.5 daily="RU8_DU"  
New "Load.BT_2836301_M2" bus1="UC2836301.1.2.4" phases=1 conn=Delta model=3 kv=0.380000000 kw = 0.3401075 pf=0.92 status=variable vmaxpu=1.5 vminpu=0.5 daily="RU8_DU" 
New "Load.BT_2805229_M1" bus1="UC2805229.2.4" phases=1 conn=Wye model=2 kv=0.220000000 kw = 0.4944815 pf=0.92 status=variable vmaxpu=1.5 vminpu=0.5 daily="RU2_DU"  
New "Load.BT_2805229_M2" bus1="UC2805229.2.4" phases=1 conn=Wye model=3 kv=0.220000000 kw = 0.4944815 pf=0.92 status=variable vmaxpu=1.5 vminpu=0.5 daily="RU2_DU" 
New "Load.BT_2805294_M1" bus1="UC2805294.1.2.4" phases=1 conn=Delta model=2 kv=0.440000000 kw = 0.2836595 pf=0.92 status=variable vmaxpu=1.5 vminpu=0.5 daily="CO2_DU"  
New "Load.BT_2805294_M2" bus1="UC2805294.1.2.4" phases=1 conn=Delta model=3 kv=0.440000000 kw = 0.2836595 pf=0.92 status=variable vmaxpu=1.5 vminpu=0.5 daily="CO2_DU" 
New "Load.BT_2805281_M1" bus1="UC2805281.1.2.4" phases=1 conn=Delta model=2 kv=0.440000000 kw = 0.2592295 pf=0.92 status=variable vmaxpu=1.5 vminpu=0.5 daily="RU6_DU"  
New "Load.BT_2805281_M2" bus1="UC2805281.1.2.4" phases=1 conn=Delta model=3 kv=0.440000000 kw = 0.2592295 pf=0.92 status=variable vmaxpu=1.5 vminpu=0.5 daily="RU6_DU" 
New "Load.BT_2837357_M1" bus1="UC2837357.1.4" phases=1 conn=Wye model=2 kv=0.220000000 kw = 0.0193285 pf=0.92 status=variable vmaxpu=1.5 vminpu=0.5 daily="RU6_DU"  
New "Load.BT_2837357_M2" bus1="UC2837357.1.4" phases=1 conn=Wye model=3 kv=0.220000000 kw = 0.0193285 pf=0.92 status=variable vmaxpu=1.5 vminpu=0.5 daily="RU6_DU" 
New "Load.BT_2805430_M1" bus1="UC2805430.2.4" phases=1 conn=Wye model=2 kv=0.220000000 kw = 0.1600275 pf=0.92 status=variable vmaxpu=1.5 vminpu=0.5 daily="RU4_DU"  
New "Load.BT_2805430_M2" bus1="UC2805430.2.4" phases=1 conn=Wye model=3 kv=0.220000000 kw = 0.1600275 pf=0.92 status=variable vmaxpu=1.5 vminpu=0.5 daily="RU4_DU" 
New "Load.BT_2825298_M1" bus1="UC2825298.2.4" phases=1 conn=Wye model=2 kv=0.220000000 kw = 0.127227 pf=0.92 status=variable vmaxpu=1.5 vminpu=0.5 daily="RU4_DU"  
New "Load.BT_2825298_M2" bus1="UC2825298.2.4" phases=1 conn=Wye model=3 kv=0.220000000 kw = 0.127227 pf=0.92 status=variable vmaxpu=1.5 vminpu=0.5 daily="RU4_DU" 
New "Load.BT_2825849_M1" bus1="UC2825849.1.4" phases=1 conn=Wye model=2 kv=0.219393102 kw = 0.14343 pf=0.92 status=variable vmaxpu=1.5 vminpu=0.5 daily="RE3_DU"  
New "Load.BT_2825849_M2" bus1="UC2825849.1.4" phases=1 conn=Wye model=3 kv=0.219393102 kw = 0.14343 pf=0.92 status=variable vmaxpu=1.5 vminpu=0.5 daily="RE3_DU" 
New "Load.BT_2821694_M1" bus1="UC2821694.1.4" phases=1 conn=Wye model=2 kv=0.220000000 kw = 0.733347 pf=0.92 status=variable vmaxpu=1.5 vminpu=0.5 daily="RU6_DU"  
New "Load.BT_2821694_M2" bus1="UC2821694.1.4" phases=1 conn=Wye model=3 kv=0.220000000 kw = 0.733347 pf=0.92 status=variable vmaxpu=1.5 vminpu=0.5 daily="RU6_DU" 
New "Load.BT_2818331_M1" bus1="UC2818331.1.4" phases=1 conn=Wye model=2 kv=0.219393102 kw = 0.130739 pf=0.92 status=variable vmaxpu=1.5 vminpu=0.5 daily="RU3_DU"  
New "Load.BT_2818331_M2" bus1="UC2818331.1.4" phases=1 conn=Wye model=3 kv=0.219393102 kw = 0.130739 pf=0.92 status=variable vmaxpu=1.5 vminpu=0.5 daily="RU3_DU" 
New "Load.BT_2825862_M1" bus1="UC2825862.1.2.4" phases=1 conn=Delta model=2 kv=0.440000000 kw = 0.1296785 pf=0.92 status=variable vmaxpu=1.5 vminpu=0.5 daily="RU7_DU"  
New "Load.BT_2825862_M2" bus1="UC2825862.1.2.4" phases=1 conn=Delta model=3 kv=0.440000000 kw = 0.1296785 pf=0.92 status=variable vmaxpu=1.5 vminpu=0.5 daily="RU7_DU" 
New "Load.BT_2805207_M1" bus1="UC2805207.1.4" phases=1 conn=Wye model=2 kv=0.220000000 kw = 0.121215 pf=0.92 status=variable vmaxpu=1.5 vminpu=0.5 daily="RU3_DU"  
New "Load.BT_2805207_M2" bus1="UC2805207.1.4" phases=1 conn=Wye model=3 kv=0.220000000 kw = 0.121215 pf=0.92 status=variable vmaxpu=1.5 vminpu=0.5 daily="RU3_DU" 
New "Load.BT_2805369_M1" bus1="UC2805369.2.4" phases=1 conn=Wye model=2 kv=0.220000000 kw = 0.316543 pf=0.92 status=variable vmaxpu=1.5 vminpu=0.5 daily="RU2_DU"  
New "Load.BT_2805369_M2" bus1="UC2805369.2.4" phases=1 conn=Wye model=3 kv=0.220000000 kw = 0.316543 pf=0.92 status=variable vmaxpu=1.5 vminpu=0.5 daily="RU2_DU" 
New "Load.BT_2805306_M1" bus1="UC2805306.1.2.4" phases=1 conn=Delta model=2 kv=0.440000000 kw = 0.390813 pf=0.92 status=variable vmaxpu=1.5 vminpu=0.5 daily="RU1_DU"  
New "Load.BT_2805306_M2" bus1="UC2805306.1.2.4" phases=1 conn=Delta model=3 kv=0.440000000 kw = 0.390813 pf=0.92 status=variable vmaxpu=1.5 vminpu=0.5 daily="RU1_DU" 

New "Load.BT_2836487_M1" bus1="UC2836487.2.4" phases=1 conn=Wye model=2 kv=0.219393102 kw = 0.1943515 pf=0.92 status=variable vmaxpu=1.5 vminpu=0.5 daily="RE3_DU"  
New "Load.BT_2836487_M2" bus1="UC2836487.2.4" phases=1 conn=Wye model=3 kv=0.219393102 kw = 0.1943515 pf=0.92 status=variable vmaxpu=1.5 vminpu=0.5 daily="RE3_DU" 
New "Load.BT_2805295_M1" bus1="UC2805295.2.4" phases=1 conn=Wye model=2 kv=0.219393102 kw = 0.2632105 pf=0.92 status=variable vmaxpu=1.5 vminpu=0.5 daily="RU3_DU"  
New "Load.BT_2805295_M2" bus1="UC2805295.2.4" phases=1 conn=Wye model=3 kv=0.219393102 kw = 0.2632105 pf=0.92 status=variable vmaxpu=1.5 vminpu=0.5 daily="RU3_DU" 
New "Load.BT_2805260_M1" bus1="UC2805260.1.2.4" phases=1 conn=Delta model=2 kv=0.440000000 kw = 1.028297 pf=0.92 status=variable vmaxpu=1.5 vminpu=0.5 daily="RU2_DU"  
New "Load.BT_2805260_M2" bus1="UC2805260.1.2.4" phases=1 conn=Delta model=3 kv=0.440000000 kw = 1.028297 pf=0.92 status=variable vmaxpu=1.5 vminpu=0.5 daily="RU2_DU" 
New "Load.BT_2819368_M1" bus1="UC2819368.1.4" phases=1 conn=Wye model=2 kv=0.220000000 kw = 0.2909185 pf=0.92 status=variable vmaxpu=1.5 vminpu=0.5 daily="RU8_DU"  
New "Load.BT_2819368_M2" bus1="UC2819368.1.4" phases=1 conn=Wye model=3 kv=0.220000000 kw = 0.2909185 pf=0.92 status=variable vmaxpu=1.5 vminpu=0.5 daily="RU8_DU" 
New "Load.BT_2821699_M1" bus1="UC2821699.1.4" phases=1 conn=Wye model=2 kv=0.220000000 kw = 0.355567 pf=0.92 status=variable vmaxpu=1.5 vminpu=0.5 daily="RU8_DU"  
New "Load.BT_2821699_M2" bus1="UC2821699.1.4" phases=1 conn=Wye model=3 kv=0.220000000 kw = 0.355567 pf=0.92 status=variable vmaxpu=1.5 vminpu=0.5 daily="RU8_DU" 
New "Load.BT_2827095_M1" bus1="UC2827095.1.4" phases=1 conn=Wye model=2 kv=0.220000000 kw = 0.153491 pf=0.92 status=variable vmaxpu=1.5 vminpu=0.5 daily="RU6_DU"  
New "Load.BT_2827095_M2" bus1="UC2827095.1.4" phases=1 conn=Wye model=3 kv=0.220000000 kw = 0.153491 pf=0.92 status=variable vmaxpu=1.5 vminpu=0.5 daily="RU6_DU" 
New "Load.BT_2805296_M1" bus1="UC2805296.1.4" phases=1 conn=Wye model=2 kv=0.220000000 kw = 0.1878585 pf=0.92 status=variable vmaxpu=1.5 vminpu=0.5 daily="RU4_DU"  
New "Load.BT_2805296_M2" bus1="UC2805296.1.4" phases=1 conn=Wye model=3 kv=0.220000000 kw = 0.1878585 pf=0.92 status=variable vmaxpu=1.5 vminpu=0.5 daily="RU4_DU" 
New "Load.BT_2831489_M1" bus1="UC2831489.1.4" phases=1 conn=Wye model=2 kv=0.220000000 kw = 0.031835 pf=0.92 status=variable vmaxpu=1.5 vminpu=0.5 daily="RU6_DU"  
New "Load.BT_2831489_M2" bus1="UC2831489.1.4" phases=1 conn=Wye model=3 kv=0.220000000 kw = 0.031835 pf=0.92 status=variable vmaxpu=1.5 vminpu=0.5 daily="RU6_DU" 
New "Load.BT_2805333_M1" bus1="UC2805333.1.4" phases=1 conn=Wye model=2 kv=0.220000000 kw = 0.4551475 pf=0.92 status=variable vmaxpu=1.5 vminpu=0.5 daily="RU2_DU"  
New "Load.BT_2805333_M2" bus1="UC2805333.1.4" phases=1 conn=Wye model=3 kv=0.220000000 kw = 0.4551475 pf=0.92 status=variable vmaxpu=1.5 vminpu=0.5 daily="RU2_DU" 
New "Load.BT_2805215_M1" bus1="UC2805215.2.4" phases=1 conn=Wye model=2 kv=0.220000000 kw = 0.9591725 pf=0.92 status=variable vmaxpu=1.5 vminpu=0.5 daily="RU4_DU"  
New "Load.BT_2805215_M2" bus1="UC2805215.2.4" phases=1 conn=Wye model=3 kv=0.220000000 kw = 0.9591725 pf=0.92 status=variable vmaxpu=1.5 vminpu=0.5 daily="RU4_DU" 
New "Load.BT_2838202_M1" bus1="UC2838202.1.4" phases=1 conn=Wye model=2 kv=0.220000000 kw = 0.206173 pf=0.92 status=variable vmaxpu=1.5 vminpu=0.5 daily="RE4_DU"  
New "Load.BT_2838202_M2" bus1="UC2838202.1.4" phases=1 conn=Wye model=3 kv=0.220000000 kw = 0.206173 pf=0.92 status=variable vmaxpu=1.5 vminpu=0.5 daily="RE4_DU" 
New "Load.BT_2834960_M1" bus1="UC2834960.1.2.3.4" phases=3 conn=Delta model=2 kv=0.380000000 kw = 0.513984 pf=0.92 status=variable vmaxpu=1.5 vminpu=0.5 daily="RU5_DU"  
New "Load.BT_2834960_M2" bus1="UC2834960.1.2.3.4" phases=3 conn=Delta model=3 kv=0.380000000 kw = 0.513984 pf=0.92 status=variable vmaxpu=1.5 vminpu=0.5 daily="RU5_DU" 
New "Load.BT_2817019_M1" bus1="UC2817019.2.4" phases=1 conn=Wye model=2 kv=0.220000000 kw = 0.438337 pf=0.92 status=variable vmaxpu=1.5 vminpu=0.5 daily="RU4_DU"  
New "Load.BT_2817019_M2" bus1="UC2817019.2.4" phases=1 conn=Wye model=3 kv=0.220000000 kw = 0.438337 pf=0.92 status=variable vmaxpu=1.5 vminpu=0.5 daily="RU4_DU" 
New "Load.BT_2836306_M1" bus1="UC2836306.1.4" phases=1 conn=Wye model=2 kv=0.220000000 kw = 0.2303635 pf=0.92 status=variable vmaxpu=1.5 vminpu=0.5 daily="RU5_DU"  
New "Load.BT_2836306_M2" bus1="UC2836306.1.4" phases=1 conn=Wye model=3 kv=0.220000000 kw = 0.2303635 pf=0.92 status=variable vmaxpu=1.5 vminpu=0.5 daily="RU5_DU" 
New "Load.BT_2805205_M1" bus1="UC2805205.1.4" phases=1 conn=Wye model=2 kv=0.220000000 kw = 0.382099 pf=0.92 status=variable vmaxpu=1.5 vminpu=0.5 daily="RU2_DU"  
New "Load.BT_2805205_M2" bus1="UC2805205.1.4" phases=1 conn=Wye model=3 kv=0.220000000 kw = 0.382099 pf=0.92 status=variable vmaxpu=1.5 vminpu=0.5 daily="RU2_DU" 
New "Load.BT_2833916_M1" bus1="UC2833916.1.4" phases=1 conn=Wye model=2 kv=0.220000000 kw = 0.130092 pf=0.92 status=variable vmaxpu=1.5 vminpu=0.5 daily="RE1_DU"  
New "Load.BT_2833916_M2" bus1="UC2833916.1.4" phases=1 conn=Wye model=3 kv=0.220000000 kw = 0.130092 pf=0.92 status=variable vmaxpu=1.5 vminpu=0.5 daily="RE1_DU" 
New "Load.BT_2805208_M1" bus1="UC2805208.2.4" phases=1 conn=Wye model=2 kv=0.220000000 kw = 0.3408925 pf=0.92 status=variable vmaxpu=1.5 vminpu=0.5 daily="RU2_DU"  
New "Load.BT_2805208_M2" bus1="UC2805208.2.4" phases=1 conn=Wye model=3 kv=0.220000000 kw = 0.3408925 pf=0.92 status=variable vmaxpu=1.5 vminpu=0.5 daily="RU2_DU" 
New "Load.BT_2805360_M1" bus1="UC2805360.1.4" phases=1 conn=Wye model=2 kv=0.220000000 kw = 0.147383 pf=0.92 status=variable vmaxpu=1.5 vminpu=0.5 daily="RU5_DU"  
New "Load.BT_2805360_M2" bus1="UC2805360.1.4" phases=1 conn=Wye model=3 kv=0.220000000 kw = 0.147383 pf=0.92 status=variable vmaxpu=1.5 vminpu=0.5 daily="RU5_DU" 
New "Load.BT_2833914_M1" bus1="UC2833914.2.4" phases=1 conn=Wye model=2 kv=0.220000000 kw = 0.1600275 pf=0.92 status=variable vmaxpu=1.5 vminpu=0.5 daily="RU4_DU"  
New "Load.BT_2833914_M2" bus1="UC2833914.2.4" phases=1 conn=Wye model=3 kv=0.220000000 kw = 0.1600275 pf=0.92 status=variable vmaxpu=1.5 vminpu=0.5 daily="RU4_DU" 
New "Load.BT_2825865_M1" bus1="UC2825865.1.4" phases=1 conn=Wye model=2 kv=0.220000000 kw = 0.0616255 pf=0.92 status=variable vmaxpu=1.5 vminpu=0.5 daily="RU4_DU"  
New "Load.BT_2825865_M2" bus1="UC2825865.1.4" phases=1 conn=Wye model=3 kv=0.220000000 kw = 0.0616255 pf=0.92 status=variable vmaxpu=1.5 vminpu=0.5 daily="RU4_DU" 
New "Load.BT_2836304_M1" bus1="UC2836304.1.4" phases=1 conn=Wye model=2 kv=0.220000000 kw = 0.424432 pf=0.92 status=variable vmaxpu=1.5 vminpu=0.5 daily="RU8_DU"  
New "Load.BT_2836304_M2" bus1="UC2836304.1.4" phases=1 conn=Wye model=3 kv=0.220000000 kw = 0.424432 pf=0.92 status=variable vmaxpu=1.5 vminpu=0.5 daily="RU8_DU" 
New "Load.BT_2805265_M1" bus1="UC2805265.2.4" phases=1 conn=Wye model=2 kv=0.220000000 kw = 0.3888445 pf=0.92 status=variable vmaxpu=1.5 vminpu=0.5 daily="RU6_DU"  
New "Load.BT_2805265_M2" bus1="UC2805265.2.4" phases=1 conn=Wye model=3 kv=0.220000000 kw = 0.3888445 pf=0.92 status=variable vmaxpu=1.5 vminpu=0.5 daily="RU6_DU" 
New "Load.BT_2805282_M1" bus1="UC2805282.1.2.4" phases=1 conn=Delta model=2 kv=0.440000000 kw = 0.3410915 pf=0.92 status=variable vmaxpu=1.5 vminpu=0.5 daily="RU6_DU"  
New "Load.BT_2805282_M2" bus1="UC2805282.1.2.4" phases=1 conn=Delta model=3 kv=0.440000000 kw = 0.3410915 pf=0.92 status=variable vmaxpu=1.5 vminpu=0.5 daily="RU6_DU" 
New "Load.BT_2819347_M1" bus1="UC2819347.1.4" phases=1 conn=Wye model=2 kv=0.220000000 kw = 0.1211375 pf=0.92 status=variable vmaxpu=1.5 vminpu=0.5 daily="RU1_DU"  
New "Load.BT_2819347_M2" bus1="UC2819347.1.4" phases=1 conn=Wye model=3 kv=0.220000000 kw = 0.1211375 pf=0.92 status=variable vmaxpu=1.5 vminpu=0.5 daily="RU1_DU" 
New "Load.BT_2806091_M1" bus1="UC2806091.1.4" phases=1 conn=Wye model=2 kv=0.220000000 kw = 0.281172 pf=0.92 status=variable vmaxpu=1.5 vminpu=0.5 daily="RU7_DU"  
New "Load.BT_2806091_M2" bus1="UC2806091.1.4" phases=1 conn=Wye model=3 kv=0.220000000 kw = 0.281172 pf=0.92 status=variable vmaxpu=1.5 vminpu=0.5 daily="RU7_DU" 
New "Load.BT_2806074_M1" bus1="UC2806074.1.4" phases=1 conn=Wye model=2 kv=0.220000000 kw = 0.1853265 pf=0.92 status=variable vmaxpu=1.5 vminpu=0.5 daily="RU6_DU"  
New "Load.BT_2806074_M2" bus1="UC2806074.1.4" phases=1 conn=Wye model=3 kv=0.220000000 kw = 0.1853265 pf=0.92 status=variable vmaxpu=1.5 vminpu=0.5 daily="RU6_DU" 
New "Load.BT_2805304_M1" bus1="UC2805304.2.4" phases=1 conn=Wye model=2 kv=0.220000000 kw = 0.257436 pf=0.92 status=variable vmaxpu=1.5 vminpu=0.5 daily="RU4_DU"  
New "Load.BT_2805304_M2" bus1="UC2805304.2.4" phases=1 conn=Wye model=3 kv=0.220000000 kw = 0.257436 pf=0.92 status=variable vmaxpu=1.5 vminpu=0.5 daily="RU4_DU" 
New "Load.BT_2832709_M1" bus1="UC2832709.1.4" phases=1 conn=Wye model=2 kv=0.220000000 kw = 0.0721055 pf=0.92 status=variable vmaxpu=1.5 vminpu=0.5 daily="RU1_DU"  
New "Load.BT_2832709_M2" bus1="UC2832709.1.4" phases=1 conn=Wye model=3 kv=0.220000000 kw = 0.0721055 pf=0.92 status=variable vmaxpu=1.5 vminpu=0.5 daily="RU1_DU" 
New "Load.BT_2834135_M1" bus1="UC2834135.1.2.3.4" phases=3 conn=Delta model=2 kv=0.380000000 kw = 0.0008655 pf=0.92 status=variable vmaxpu=1.5 vminpu=0.5 daily="RU3_DU"  
New "Load.BT_2834135_M2" bus1="UC2834135.1.2.3.4" phases=3 conn=Delta model=3 kv=0.380000000 kw = 0.0008655 pf=0.92 status=variable vmaxpu=1.5 vminpu=0.5 daily="RU3_DU" 
New "Load.BT_2805429_M1" bus1="UC2805429.1.4" phases=1 conn=Wye model=2 kv=0.219393102 kw = 0.17738 pf=0.92 status=variable vmaxpu=1.5 vminpu=0.5 daily="RU1_DU"  
New "Load.BT_2805429_M2" bus1="UC2805429.1.4" phases=1 conn=Wye model=3 kv=0.219393102 kw = 0.17738 pf=0.92 status=variable vmaxpu=1.5 vminpu=0.5 daily="RU1_DU" 
New "Load.BT_2805386_M1" bus1="UC2805386.1.4" phases=1 conn=Wye model=2 kv=0.220000000 kw = 0.0051945 pf=0.92 status=variable vmaxpu=1.5 vminpu=0.5 daily="RU3_DU"  
New "Load.BT_2805386_M2" bus1="UC2805386.1.4" phases=1 conn=Wye model=3 kv=0.220000000 kw = 0.0051945 pf=0.92 status=variable vmaxpu=1.5 vminpu=0.5 daily="RU3_DU" 
New "Load.BT_2838208_M1" bus1="UC2838208.1.4" phases=1 conn=Wye model=2 kv=0.220000000 kw = 0.2528595 pf=0.92 status=variable vmaxpu=1.5 vminpu=0.5 daily="RU2_DU"  
New "Load.BT_2838208_M2" bus1="UC2838208.1.4" phases=1 conn=Wye model=3 kv=0.220000000 kw = 0.2528595 pf=0.92 status=variable vmaxpu=1.5 vminpu=0.5 daily="RU2_DU" 
New "Load.BT_2805326_M1" bus1="UC2805326.1.4" phases=1 conn=Wye model=2 kv=0.219393102 kw = 0.1151545 pf=0.92 status=variable vmaxpu=1.5 vminpu=0.5 daily="RU3_DU"  
New "Load.BT_2805326_M2" bus1="UC2805326.1.4" phases=1 conn=Wye model=3 kv=0.219393102 kw = 0.1151545 pf=0.92 status=variable vmaxpu=1.5 vminpu=0.5 daily="RU3_DU" 
New "Load.BT_2837166_M1" bus1="UC2837166.1.2.3.4" phases=3 conn=Delta model=2 kv=0.380000000 kw = 0.001442 pf=0.92 status=variable vmaxpu=1.5 vminpu=0.5 daily="RU1_DU"  
New "Load.BT_2837166_M2" bus1="UC2837166.1.2.3.4" phases=3 conn=Delta model=3 kv=0.380000000 kw = 0.001442 pf=0.92 status=variable vmaxpu=1.5 vminpu=0.5 daily="RU1_DU" 
New "Load.BT_2805365_M1" bus1="UC2805365.2.4" phases=1 conn=Wye model=2 kv=0.220000000 kw = 0.116886 pf=0.92 status=variable vmaxpu=1.5 vminpu=0.5 daily="RU3_DU"  
New "Load.BT_2805365_M2" bus1="UC2805365.2.4" phases=1 conn=Wye model=3 kv=0.220000000 kw = 0.116886 pf=0.92 status=variable vmaxpu=1.5 vminpu=0.5 daily="RU3_DU" 
New "Load.BT_2831802_M1" bus1="UC2831802.1.2.4" phases=1 conn=Delta model=2 kv=0.440000000 kw = 0.5559795 pf=0.92 status=variable vmaxpu=1.5 vminpu=0.5 daily="RU6_DU"  
New "Load.BT_2831802_M2" bus1="UC2831802.1.2.4" phases=1 conn=Delta model=3 kv=0.440000000 kw = 0.5559795 pf=0.92 status=variable vmaxpu=1.5 vminpu=0.5 daily="RU6_DU" 
New "Load.BT_2818330_M1" bus1="UC2818330.2.4" phases=1 conn=Wye model=2 kv=0.220000000 kw = 0.1888525 pf=0.92 status=variable vmaxpu=1.5 vminpu=0.5 daily="RU4_DU"  
New "Load.BT_2818330_M2" bus1="UC2818330.2.4" phases=1 conn=Wye model=3 kv=0.220000000 kw = 0.1888525 pf=0.92 status=variable vmaxpu=1.5 vminpu=0.5 daily="RU4_DU" 
New "Load.BT_2836308_M1" bus1="UC2836308.1.2.3.4" phases=3 conn=Delta model=2 kv=0.380000000 kw = 0.765763 pf=0.92 status=variable vmaxpu=1.5 vminpu=0.5 daily="RU1_DU"  
New "Load.BT_2836308_M2" bus1="UC2836308.1.2.3.4" phases=3 conn=Delta model=3 kv=0.380000000 kw = 0.765763 pf=0.92 status=variable vmaxpu=1.5 vminpu=0.5 daily="RU1_DU" 
New "Load.BT_2803522_M1" bus1="UC2803522.1.2.4" phases=1 conn=Delta model=2 kv=0.440000000 kw = 1.0083425 pf=0.92 status=variable vmaxpu=1.5 vminpu=0.5 daily="RU7_DU"  
New "Load.BT_2803522_M2" bus1="UC2803522.1.2.4" phases=1 conn=Delta model=3 kv=0.440000000 kw = 1.0083425 pf=0.92 status=variable vmaxpu=1.5 vminpu=0.5 daily="RU7_DU" 
New "Load.BT_2805257_M1" bus1="UC2805257.1.2.4" phases=1 conn=Delta model=2 kv=0.380000000 kw = 0.4842595 pf=0.92 status=variable vmaxpu=1.5 vminpu=0.5 daily="RU5_DU"  
New "Load.BT_2805257_M2" bus1="UC2805257.1.2.4" phases=1 conn=Delta model=3 kv=0.380000000 kw = 0.4842595 pf=0.92 status=variable vmaxpu=1.5 vminpu=0.5 daily="RU5_DU" 
New "Load.BT_2822262_M1" bus1="UC2822262.2.4" phases=1 conn=Wye model=2 kv=0.219393102 kw = 0.1996615 pf=0.92 status=variable vmaxpu=1.5 vminpu=0.5 daily="RE2_DU"  
New "Load.BT_2822262_M2" bus1="UC2822262.2.4" phases=1 conn=Wye model=3 kv=0.219393102 kw = 0.1996615 pf=0.92 status=variable vmaxpu=1.5 vminpu=0.5 daily="RE2_DU" 
New "Load.BT_2805246_M1" bus1="UC2805246.1.4" phases=1 conn=Wye model=2 kv=0.219393102 kw = 0.3115305 pf=0.92 status=variable vmaxpu=1.5 vminpu=0.5 daily="RU6_DU"  
New "Load.BT_2805246_M2" bus1="UC2805246.1.4" phases=1 conn=Wye model=3 kv=0.219393102 kw = 0.3115305 pf=0.92 status=variable vmaxpu=1.5 vminpu=0.5 daily="RU6_DU" 
New "Load.BT_2833912_M1" bus1="UC2833912.1.4" phases=1 conn=Wye model=2 kv=0.220000000 kw = 0.09542 pf=0.92 status=variable vmaxpu=1.5 vminpu=0.5 daily="RU4_DU"  
New "Load.BT_2833912_M2" bus1="UC2833912.1.4" phases=1 conn=Wye model=3 kv=0.220000000 kw = 0.09542 pf=0.92 status=variable vmaxpu=1.5 vminpu=0.5 daily="RU4_DU" 
New "Load.BT_2805428_M1" bus1="UC2805428.2.4" phases=1 conn=Wye model=2 kv=0.219393102 kw = 0.067534 pf=0.92 status=variable vmaxpu=1.5 vminpu=0.5 daily="RU3_DU"  
New "Load.BT_2805428_M2" bus1="UC2805428.2.4" phases=1 conn=Wye model=3 kv=0.219393102 kw = 0.067534 pf=0.92 status=variable vmaxpu=1.5 vminpu=0.5 daily="RU3_DU" 
New "Load.BT_2818332_M1" bus1="UC2818332.1.4" phases=1 conn=Wye model=2 kv=0.220000000 kw = 0.2105475 pf=0.92 status=variable vmaxpu=1.5 vminpu=0.5 daily="RU5_DU"  
New "Load.BT_2818332_M2" bus1="UC2818332.1.4" phases=1 conn=Wye model=3 kv=0.220000000 kw = 0.2105475 pf=0.92 status=variable vmaxpu=1.5 vminpu=0.5 daily="RU5_DU" 
New "Load.BT_2817034_M1" bus1="UC2817034.1.4" phases=1 conn=Wye model=2 kv=0.220000000 kw = 0.1307025 pf=0.92 status=variable vmaxpu=1.5 vminpu=0.5 daily="RU8_DU"  
New "Load.BT_2817034_M2" bus1="UC2817034.1.4" phases=1 conn=Wye model=3 kv=0.220000000 kw = 0.1307025 pf=0.92 status=variable vmaxpu=1.5 vminpu=0.5 daily="RU8_DU" 
New "Load.BT_2805274_M1" bus1="UC2805274.2.4" phases=1 conn=Wye model=2 kv=0.220000000 kw = 0.284808 pf=0.92 status=variable vmaxpu=1.5 vminpu=0.5 daily="RU7_DU"  
New "Load.BT_2805274_M2" bus1="UC2805274.2.4" phases=1 conn=Wye model=3 kv=0.220000000 kw = 0.284808 pf=0.92 status=variable vmaxpu=1.5 vminpu=0.5 daily="RU7_DU" 
New "Load.BT_2824960_M1" bus1="UC2824960.1.4" phases=1 conn=Wye model=2 kv=0.219393102 kw = 0.2671125 pf=0.92 status=variable vmaxpu=1.5 vminpu=0.5 daily="RE6_DU"  
New "Load.BT_2824960_M2" bus1="UC2824960.1.4" phases=1 conn=Wye model=3 kv=0.219393102 kw = 0.2671125 pf=0.92 status=variable vmaxpu=1.5 vminpu=0.5 daily="RE6_DU" 
New "Load.BT_2831486_M1" bus1="UC2831486.1.4" phases=1 conn=Wye model=2 kv=0.220000000 kw = 0.199401 pf=0.92 status=variable vmaxpu=1.5 vminpu=0.5 daily="RU5_DU"  
New "Load.BT_2831486_M2" bus1="UC2831486.1.4" phases=1 conn=Wye model=3 kv=0.220000000 kw = 0.199401 pf=0.92 status=variable vmaxpu=1.5 vminpu=0.5 daily="RU5_DU" 
New "Load.BT_2805288_M1" bus1="UC2805288.1.4" phases=1 conn=Wye model=2 kv=0.220000000 kw = 0.1762305 pf=0.92 status=variable vmaxpu=1.5 vminpu=0.5 daily="RU6_DU"  
New "Load.BT_2805288_M2" bus1="UC2805288.1.4" phases=1 conn=Wye model=3 kv=0.220000000 kw = 0.1762305 pf=0.92 status=variable vmaxpu=1.5 vminpu=0.5 daily="RU6_DU" 
New "Load.BT_2838210_M1" bus1="UC2838210.1.4" phases=1 conn=Wye model=2 kv=0.220000000 kw = 0.1963355 pf=0.92 status=variable vmaxpu=1.5 vminpu=0.5 daily="RU7_DU"  
New "Load.BT_2838210_M2" bus1="UC2838210.1.4" phases=1 conn=Wye model=3 kv=0.220000000 kw = 0.1963355 pf=0.92 status=variable vmaxpu=1.5 vminpu=0.5 daily="RU7_DU" 
New "Load.BT_2838209_M1" bus1="UC2838209.1.2.3.4" phases=3 conn=Delta model=2 kv=0.380000000 kw = 0.1781565 pf=0.92 status=variable vmaxpu=1.5 vminpu=0.5 daily="RU7_DU"  
New "Load.BT_2838209_M2" bus1="UC2838209.1.2.3.4" phases=3 conn=Delta model=3 kv=0.380000000 kw = 0.1781565 pf=0.92 status=variable vmaxpu=1.5 vminpu=0.5 daily="RU7_DU" 
New "Load.BT_2835368_M1" bus1="UC2835368.1.4" phases=1 conn=Wye model=2 kv=0.220000000 kw = 0.3938475 pf=0.92 status=variable vmaxpu=1.5 vminpu=0.5 daily="RU5_DU"  
New "Load.BT_2835368_M2" bus1="UC2835368.1.4" phases=1 conn=Wye model=3 kv=0.220000000 kw = 0.3938475 pf=0.92 status=variable vmaxpu=1.5 vminpu=0.5 daily="RU5_DU" 
New "Load.BT_2806095_M1" bus1="UC2806095.1.4" phases=1 conn=Wye model=2 kv=0.220000000 kw = 0.041821 pf=0.92 status=variable vmaxpu=1.5 vminpu=0.5 daily="RU1_DU"  
New "Load.BT_2806095_M2" bus1="UC2806095.1.4" phases=1 conn=Wye model=3 kv=0.220000000 kw = 0.041821 pf=0.92 status=variable vmaxpu=1.5 vminpu=0.5 daily="RU1_DU" 
New "Load.BT_2835361_M1" bus1="UC2835361.2.4" phases=1 conn=Wye model=2 kv=0.219393102 kw = 0.251212 pf=0.92 status=variable vmaxpu=1.5 vminpu=0.5 daily="RE1_DU"  
New "Load.BT_2835361_M2" bus1="UC2835361.2.4" phases=1 conn=Wye model=3 kv=0.219393102 kw = 0.251212 pf=0.92 status=variable vmaxpu=1.5 vminpu=0.5 daily="RE1_DU" 
New "Load.BT_2831807_M1" bus1="UC2831807.1.4" phases=1 conn=Wye model=2 kv=0.220000000 kw = 0.2036075 pf=0.92 status=variable vmaxpu=1.5 vminpu=0.5 daily="RU7_DU"  
New "Load.BT_2831807_M2" bus1="UC2831807.1.4" phases=1 conn=Wye model=3 kv=0.220000000 kw = 0.2036075 pf=0.92 status=variable vmaxpu=1.5 vminpu=0.5 daily="RU7_DU" 
New "Load.BT_2821687_M1" bus1="UC2821687.1.4" phases=1 conn=Wye model=2 kv=0.220000000 kw = 0.0735475 pf=0.92 status=variable vmaxpu=1.5 vminpu=0.5 daily="RU1_DU"  
New "Load.BT_2821687_M2" bus1="UC2821687.1.4" phases=1 conn=Wye model=3 kv=0.220000000 kw = 0.0735475 pf=0.92 status=variable vmaxpu=1.5 vminpu=0.5 daily="RU1_DU" 
New "Load.BT_2826239_M1" bus1="UC2826239.1.4" phases=1 conn=Wye model=2 kv=0.220000000 kw = 0.2417295 pf=0.92 status=variable vmaxpu=1.5 vminpu=0.5 daily="RU8_DU"  
New "Load.BT_2826239_M2" bus1="UC2826239.1.4" phases=1 conn=Wye model=3 kv=0.220000000 kw = 0.2417295 pf=0.92 status=variable vmaxpu=1.5 vminpu=0.5 daily="RU8_DU" 
New "Load.BT_2819358_M1" bus1="UC2819358.1.4" phases=1 conn=Wye model=2 kv=0.220000000 kw = 0.0045475 pf=0.92 status=variable vmaxpu=1.5 vminpu=0.5 daily="RU6_DU"  
New "Load.BT_2819358_M2" bus1="UC2819358.1.4" phases=1 conn=Wye model=3 kv=0.220000000 kw = 0.0045475 pf=0.92 status=variable vmaxpu=1.5 vminpu=0.5 daily="RU6_DU" 
New "Load.BT_2821691_M1" bus1="UC2821691.3.4" phases=1 conn=Wye model=2 kv=0.219393102 kw = 0.2147205 pf=0.92 status=variable vmaxpu=1.5 vminpu=0.5 daily="RE3_DU"  
New "Load.BT_2821691_M2" bus1="UC2821691.3.4" phases=1 conn=Wye model=3 kv=0.219393102 kw = 0.2147205 pf=0.92 status=variable vmaxpu=1.5 vminpu=0.5 daily="RE3_DU" 
New "Load.BT_2828384_M1" bus1="UC2828384.1.2.3.4" phases=3 conn=Delta model=2 kv=0.380000000 kw = 0.106763 pf=0.92 status=variable vmaxpu=1.5 vminpu=0.5 daily="RU2_DU"  
New "Load.BT_2828384_M2" bus1="UC2828384.1.2.3.4" phases=3 conn=Delta model=3 kv=0.380000000 kw = 0.106763 pf=0.92 status=variable vmaxpu=1.5 vminpu=0.5 daily="RU2_DU" 
New "Load.BT_2836675_M1" bus1="UC2836675.1.2.3.4" phases=3 conn=Delta model=2 kv=0.380000000 kw = 0.3428695 pf=0.92 status=variable vmaxpu=1.5 vminpu=0.5 daily="IN4_DU"  
New "Load.BT_2836675_M2" bus1="UC2836675.1.2.3.4" phases=3 conn=Delta model=3 kv=0.380000000 kw = 0.3428695 pf=0.92 status=variable vmaxpu=1.5 vminpu=0.5 daily="IN4_DU" 
New "Load.BT_2805354_M1" bus1="UC2805354.2.4" phases=1 conn=Wye model=2 kv=0.219393102 kw = 0.197833 pf=0.92 status=variable vmaxpu=1.5 vminpu=0.5 daily="RU6_DU"  
New "Load.BT_2805354_M2" bus1="UC2805354.2.4" phases=1 conn=Wye model=3 kv=0.219393102 kw = 0.197833 pf=0.92 status=variable vmaxpu=1.5 vminpu=0.5 daily="RU6_DU" 
New "Load.BT_2805349_M1" bus1="UC2805349.2.4" phases=1 conn=Wye model=2 kv=0.220000000 kw = 0.113923 pf=0.92 status=variable vmaxpu=1.5 vminpu=0.5 daily="RU7_DU"  
New "Load.BT_2805349_M2" bus1="UC2805349.2.4" phases=1 conn=Wye model=3 kv=0.220000000 kw = 0.113923 pf=0.92 status=variable vmaxpu=1.5 vminpu=0.5 daily="RU7_DU" 
New "Load.BT_2805289_M1" bus1="UC2805289.1.4" phases=1 conn=Wye model=2 kv=0.220000000 kw = 0.165843 pf=0.92 status=variable vmaxpu=1.5 vminpu=0.5 daily="RU1_DU"  
New "Load.BT_2805289_M2" bus1="UC2805289.1.4" phases=1 conn=Wye model=3 kv=0.220000000 kw = 0.165843 pf=0.92 status=variable vmaxpu=1.5 vminpu=0.5 daily="RU1_DU" 
New "Load.BT_2817015_M1" bus1="UC2817015.1.4" phases=1 conn=Wye model=2 kv=0.220000000 kw = 0.0193285 pf=0.92 status=variable vmaxpu=1.5 vminpu=0.5 daily="RU6_DU"  
New "Load.BT_2817015_M2" bus1="UC2817015.1.4" phases=1 conn=Wye model=3 kv=0.220000000 kw = 0.0193285 pf=0.92 status=variable vmaxpu=1.5 vminpu=0.5 daily="RU6_DU" 
New "Load.BT_2807370_M1" bus1="UC2807370.1.2.4" phases=1 conn=Delta model=2 kv=0.440000000 kw = 0.207243 pf=0.92 status=variable vmaxpu=1.5 vminpu=0.5 daily="RU7_DU"  
New "Load.BT_2807370_M2" bus1="UC2807370.1.2.4" phases=1 conn=Delta model=3 kv=0.440000000 kw = 0.207243 pf=0.92 status=variable vmaxpu=1.5 vminpu=0.5 daily="RU7_DU" 
New "Load.BT_2836080_M1" bus1="UC2836080.1.2.3.4" phases=3 conn=Delta model=2 kv=0.380000000 kw = 0.8133185 pf=0.92 status=variable vmaxpu=1.5 vminpu=0.5 daily="CO7_DU"  
New "Load.BT_2836080_M2" bus1="UC2836080.1.2.3.4" phases=3 conn=Delta model=3 kv=0.380000000 kw = 0.8133185 pf=0.92 status=variable vmaxpu=1.5 vminpu=0.5 daily="CO7_DU" 
New "Load.BT_2806068_M1" bus1="UC2806068.2.4" phases=1 conn=Wye model=2 kv=0.220000000 kw = 0.1004355 pf=0.92 status=variable vmaxpu=1.5 vminpu=0.5 daily="RU3_DU"  
New "Load.BT_2806068_M2" bus1="UC2806068.2.4" phases=1 conn=Wye model=3 kv=0.220000000 kw = 0.1004355 pf=0.92 status=variable vmaxpu=1.5 vminpu=0.5 daily="RU3_DU" 
New "Load.BT_2805425_M1" bus1="UC2805425.2.4" phases=1 conn=Wye model=2 kv=0.219393102 kw = 0.211786 pf=0.92 status=variable vmaxpu=1.5 vminpu=0.5 daily="RU5_DU"  
New "Load.BT_2805425_M2" bus1="UC2805425.2.4" phases=1 conn=Wye model=3 kv=0.219393102 kw = 0.211786 pf=0.92 status=variable vmaxpu=1.5 vminpu=0.5 daily="RU5_DU" 
New "Load.BT_2805290_M1" bus1="UC2805290.1.4" phases=1 conn=Wye model=2 kv=0.220000000 kw = 0.5381055 pf=0.92 status=variable vmaxpu=1.5 vminpu=0.5 daily="RU7_DU"  
New "Load.BT_2805290_M2" bus1="UC2805290.1.4" phases=1 conn=Wye model=3 kv=0.220000000 kw = 0.5381055 pf=0.92 status=variable vmaxpu=1.5 vminpu=0.5 daily="RU7_DU" 
New "Load.BT_2805366_M1" bus1="UC2805366.2.4" phases=1 conn=Wye model=2 kv=0.220000000 kw = 0.27827 pf=0.92 status=variable vmaxpu=1.5 vminpu=0.5 daily="RU8_DU"  
New "Load.BT_2805366_M2" bus1="UC2805366.2.4" phases=1 conn=Wye model=3 kv=0.220000000 kw = 0.27827 pf=0.92 status=variable vmaxpu=1.5 vminpu=0.5 daily="RU8_DU" 
New "Load.BT_2836489_M1" bus1="UC2836489.2.4" phases=1 conn=Wye model=2 kv=0.220000000 kw = 0.527814 pf=0.92 status=variable vmaxpu=1.5 vminpu=0.5 daily="RU1_DU"  
New "Load.BT_2836489_M2" bus1="UC2836489.2.4" phases=1 conn=Wye model=3 kv=0.220000000 kw = 0.527814 pf=0.92 status=variable vmaxpu=1.5 vminpu=0.5 daily="RU1_DU" 
New "Load.BT_2807371_M1" bus1="UC2807371.1.4" phases=1 conn=Wye model=2 kv=0.220000000 kw = 0.1686485 pf=0.92 status=variable vmaxpu=1.5 vminpu=0.5 daily="RU8_DU"  
New "Load.BT_2807371_M2" bus1="UC2807371.1.4" phases=1 conn=Wye model=3 kv=0.220000000 kw = 0.1686485 pf=0.92 status=variable vmaxpu=1.5 vminpu=0.5 daily="RU8_DU" 
New "Load.BT_3205285_M1" bus1="UC3205285.1.4" phases=1 conn=Wye model=2 kv=0.220000000 kw = 0.309965 pf=0.92 status=variable vmaxpu=1.5 vminpu=0.5 daily="RU3_DU"  
New "Load.BT_3205285_M2" bus1="UC3205285.1.4" phases=1 conn=Wye model=3 kv=0.220000000 kw = 0.309965 pf=0.92 status=variable vmaxpu=1.5 vminpu=0.5 daily="RU3_DU" 
New "Load.BT_2821026_M1" bus1="UC2821026.1.4" phases=1 conn=Wye model=2 kv=0.219393102 kw = 0.118253 pf=0.92 status=variable vmaxpu=1.5 vminpu=0.5 daily="RU1_DU"  
New "Load.BT_2821026_M2" bus1="UC2821026.1.4" phases=1 conn=Wye model=3 kv=0.219393102 kw = 0.118253 pf=0.92 status=variable vmaxpu=1.5 vminpu=0.5 daily="RU1_DU" 
New "Load.BT_2825582_M1" bus1="UC2825582.2.4" phases=1 conn=Wye model=2 kv=0.220000000 kw = 0.223459 pf=0.92 status=variable vmaxpu=1.5 vminpu=0.5 daily="RU8_DU"  
New "Load.BT_2825582_M2" bus1="UC2825582.2.4" phases=1 conn=Wye model=3 kv=0.220000000 kw = 0.223459 pf=0.92 status=variable vmaxpu=1.5 vminpu=0.5 daily="RU8_DU" 
New "Load.BT_2833915_M1" bus1="UC2833915.1.2.3.4" phases=3 conn=Delta model=2 kv=0.380000000 kw = 1.879026 pf=0.92 status=variable vmaxpu=1.5 vminpu=0.5 daily="RU8_DU"  
New "Load.BT_2833915_M2" bus1="UC2833915.1.2.3.4" phases=3 conn=Delta model=3 kv=0.380000000 kw = 1.879026 pf=0.92 status=variable vmaxpu=1.5 vminpu=0.5 daily="RU8_DU" 
New "Load.BT_2834959_M1" bus1="UC2834959.1.4" phases=1 conn=Wye model=2 kv=0.220000000 kw = 0.0024235 pf=0.92 status=variable vmaxpu=1.5 vminpu=0.5 daily="RU7_DU"  
New "Load.BT_2834959_M2" bus1="UC2834959.1.4" phases=1 conn=Wye model=3 kv=0.220000000 kw = 0.0024235 pf=0.92 status=variable vmaxpu=1.5 vminpu=0.5 daily="RU7_DU" 
New "Load.BT_2819343_M1" bus1="UC2819343.1.4" phases=1 conn=Wye model=2 kv=0.220000000 kw = 0.1460965 pf=0.92 status=variable vmaxpu=1.5 vminpu=0.5 daily="RU2_DU"  
New "Load.BT_2819343_M2" bus1="UC2819343.1.4" phases=1 conn=Wye model=3 kv=0.220000000 kw = 0.1460965 pf=0.92 status=variable vmaxpu=1.5 vminpu=0.5 daily="RU2_DU" 
New "Load.BT_2805231_M1" bus1="UC2805231.2.4" phases=1 conn=Wye model=2 kv=0.220000000 kw = 0.351738 pf=0.92 status=variable vmaxpu=1.5 vminpu=0.5 daily="RU5_DU"  
New "Load.BT_2805231_M2" bus1="UC2805231.2.4" phases=1 conn=Wye model=3 kv=0.220000000 kw = 0.351738 pf=0.92 status=variable vmaxpu=1.5 vminpu=0.5 daily="RU5_DU" 
New "Load.BT_2823647_M1" bus1="UC2823647.1.4" phases=1 conn=Wye model=2 kv=0.220000000 kw = 0.0396325 pf=0.92 status=variable vmaxpu=1.5 vminpu=0.5 daily="RU5_DU"  
New "Load.BT_2823647_M2" bus1="UC2823647.1.4" phases=1 conn=Wye model=3 kv=0.220000000 kw = 0.0396325 pf=0.92 status=variable vmaxpu=1.5 vminpu=0.5 daily="RU5_DU" 
New "Load.BT_2826236_M1" bus1="UC2826236.1.4" phases=1 conn=Wye model=2 kv=0.220000000 kw = 0.1211375 pf=0.92 status=variable vmaxpu=1.5 vminpu=0.5 daily="RU1_DU"  
New "Load.BT_2826236_M2" bus1="UC2826236.1.4" phases=1 conn=Wye model=3 kv=0.220000000 kw = 0.1211375 pf=0.92 status=variable vmaxpu=1.5 vminpu=0.5 daily="RU1_DU" 
New "Load.BT_2836791_M1" bus1="UC2836791.1.2.3.4" phases=3 conn=Delta model=2 kv=0.380000000 kw = 0.1728195 pf=0.92 status=variable vmaxpu=1.5 vminpu=0.5 daily="RU6_DU"  
New "Load.BT_2836791_M2" bus1="UC2836791.1.2.3.4" phases=3 conn=Delta model=3 kv=0.380000000 kw = 0.1728195 pf=0.92 status=variable vmaxpu=1.5 vminpu=0.5 daily="RU6_DU" 
New "Load.BT_2805441_M1" bus1="UC2805441.1.4" phases=1 conn=Wye model=2 kv=0.220000000 kw = 0.2254095 pf=0.92 status=variable vmaxpu=1.5 vminpu=0.5 daily="RU5_DU"  
New "Load.BT_2805441_M2" bus1="UC2805441.1.4" phases=1 conn=Wye model=3 kv=0.220000000 kw = 0.2254095 pf=0.92 status=variable vmaxpu=1.5 vminpu=0.5 daily="RU5_DU" 
New "Load.BT_2805240_M1" bus1="UC2805240.1.2.4" phases=1 conn=Delta model=2 kv=0.380000000 kw = 1.2410365 pf=0.92 status=variable vmaxpu=1.5 vminpu=0.5 daily="RU7_DU"  
New "Load.BT_2805240_M2" bus1="UC2805240.1.2.4" phases=1 conn=Delta model=3 kv=0.380000000 kw = 1.2410365 pf=0.92 status=variable vmaxpu=1.5 vminpu=0.5 daily="RU7_DU" 
New "Load.BT_2838968_M1" bus1="UC2838968.1.4" phases=1 conn=Wye model=2 kv=0.220000000 kw = 0.0 pf=0.92 status=variable vmaxpu=1.5 vminpu=0.5 daily="RU3_DU"  
New "Load.BT_2838968_M2" bus1="UC2838968.1.4" phases=1 conn=Wye model=3 kv=0.220000000 kw = 0.0 pf=0.92 status=variable vmaxpu=1.5 vminpu=0.5 daily="RU3_DU" 
New "Load.BT_2832904_M1" bus1="UC2832904.2.4" phases=1 conn=Wye model=2 kv=0.220000000 kw = 0.4252275 pf=0.92 status=variable vmaxpu=1.5 vminpu=0.5 daily="RU6_DU"  
New "Load.BT_2832904_M2" bus1="UC2832904.2.4" phases=1 conn=Wye model=3 kv=0.220000000 kw = 0.4252275 pf=0.92 status=variable vmaxpu=1.5 vminpu=0.5 daily="RU6_DU" 

New "Load.BT_2805321_M1" bus1="UC2805321.1.4" phases=1 conn=Wye model=2 kv=0.220000000 kw = 0.241178 pf=0.92 status=variable vmaxpu=1.5 vminpu=0.5 daily="RU7_DU"  
New "Load.BT_2805321_M2" bus1="UC2805321.1.4" phases=1 conn=Wye model=3 kv=0.220000000 kw = 0.241178 pf=0.92 status=variable vmaxpu=1.5 vminpu=0.5 daily="RU7_DU" 
New "Load.BT_2805443_M1" bus1="UC2805443.1.4" phases=1 conn=Wye model=2 kv=0.220000000 kw = 0.1807785 pf=0.92 status=variable vmaxpu=1.5 vminpu=0.5 daily="RU6_DU"  
New "Load.BT_2805443_M2" bus1="UC2805443.1.4" phases=1 conn=Wye model=3 kv=0.220000000 kw = 0.1807785 pf=0.92 status=variable vmaxpu=1.5 vminpu=0.5 daily="RU6_DU" 
New "Load.BT_2805797_M1" bus1="UC2805797.2.4" phases=1 conn=Wye model=2 kv=0.220000000 kw = 0.171459 pf=0.92 status=variable vmaxpu=1.5 vminpu=0.5 daily="RU8_DU"  
New "Load.BT_2805797_M2" bus1="UC2805797.2.4" phases=1 conn=Wye model=3 kv=0.220000000 kw = 0.171459 pf=0.92 status=variable vmaxpu=1.5 vminpu=0.5 daily="RU8_DU" 
New "Load.BT_2830104_M1" bus1="UC2830104.1.4" phases=1 conn=Wye model=2 kv=0.220000000 kw = 0.0 pf=0.92 status=variable vmaxpu=1.5 vminpu=0.5 daily="RU5_DU"  
New "Load.BT_2830104_M2" bus1="UC2830104.1.4" phases=1 conn=Wye model=3 kv=0.220000000 kw = 0.0 pf=0.92 status=variable vmaxpu=1.5 vminpu=0.5 daily="RU5_DU" 
New "Load.BT_2805238_M1" bus1="UC2805238.1.4" phases=1 conn=Wye model=2 kv=0.220000000 kw = 0.1671345 pf=0.92 status=variable vmaxpu=1.5 vminpu=0.5 daily="RU6_DU"  
New "Load.BT_2805238_M2" bus1="UC2805238.1.4" phases=1 conn=Wye model=3 kv=0.220000000 kw = 0.1671345 pf=0.92 status=variable vmaxpu=1.5 vminpu=0.5 daily="RU6_DU" 
New "Load.BT_2836305_M1" bus1="UC2836305.3.4" phases=1 conn=Wye model=2 kv=0.219393102 kw = 0.3358915 pf=0.92 status=variable vmaxpu=1.5 vminpu=0.5 daily="RU8_DU"  
New "Load.BT_2836305_M2" bus1="UC2836305.3.4" phases=1 conn=Wye model=3 kv=0.219393102 kw = 0.3358915 pf=0.92 status=variable vmaxpu=1.5 vminpu=0.5 daily="RU8_DU" 
New "Load.BT_2805300_M1" bus1="UC2805300.1.2.3.4" phases=3 conn=Delta model=2 kv=0.380000000 kw = 1.090597 pf=0.92 status=variable vmaxpu=1.5 vminpu=0.5 daily="CO3_DU"  
New "Load.BT_2805300_M2" bus1="UC2805300.1.2.3.4" phases=3 conn=Delta model=3 kv=0.380000000 kw = 1.090597 pf=0.92 status=variable vmaxpu=1.5 vminpu=0.5 daily="CO3_DU" 
New "Load.BT_2832702_M1" bus1="UC2832702.2.4" phases=1 conn=Wye model=2 kv=0.219393102 kw = 0.214515 pf=0.92 status=variable vmaxpu=1.5 vminpu=0.5 daily="RU7_DU"  
New "Load.BT_2832702_M2" bus1="UC2832702.2.4" phases=1 conn=Wye model=3 kv=0.219393102 kw = 0.214515 pf=0.92 status=variable vmaxpu=1.5 vminpu=0.5 daily="RU7_DU" 
New "Load.BT_2821297_M1" bus1="UC2821297.2.4" phases=1 conn=Wye model=2 kv=0.220000000 kw = 0.3365435 pf=0.92 status=variable vmaxpu=1.5 vminpu=0.5 daily="RU6_DU"  
New "Load.BT_2821297_M2" bus1="UC2821297.2.4" phases=1 conn=Wye model=3 kv=0.220000000 kw = 0.3365435 pf=0.92 status=variable vmaxpu=1.5 vminpu=0.5 daily="RU6_DU" 
New "Load.BT_2833919_M1" bus1="UC2833919.1.2.3.4" phases=3 conn=Delta model=2 kv=0.380000000 kw = 0.170961 pf=0.92 status=variable vmaxpu=1.5 vminpu=0.5 daily="RU4_DU"  
New "Load.BT_2833919_M2" bus1="UC2833919.1.2.3.4" phases=3 conn=Delta model=3 kv=0.380000000 kw = 0.170961 pf=0.92 status=variable vmaxpu=1.5 vminpu=0.5 daily="RU4_DU" 
New "Load.BT_2805256_M1" bus1="UC2805256.1.2.4" phases=1 conn=Delta model=2 kv=0.380000000 kw = 0.695675 pf=0.92 status=variable vmaxpu=1.5 vminpu=0.5 daily="RU8_DU"  
New "Load.BT_2805256_M2" bus1="UC2805256.1.2.4" phases=1 conn=Delta model=3 kv=0.380000000 kw = 0.695675 pf=0.92 status=variable vmaxpu=1.5 vminpu=0.5 daily="RU8_DU" 
New "Load.BT_2821023_M1" bus1="UC2821023.1.4" phases=1 conn=Wye model=2 kv=0.220000000 kw = 0.1499795 pf=0.92 status=variable vmaxpu=1.5 vminpu=0.5 daily="RU1_DU"  
New "Load.BT_2821023_M2" bus1="UC2821023.1.4" phases=1 conn=Wye model=3 kv=0.220000000 kw = 0.1499795 pf=0.92 status=variable vmaxpu=1.5 vminpu=0.5 daily="RU1_DU" 
New "Load.BT_2805359_M1" bus1="UC2805359.1.4" phases=1 conn=Wye model=2 kv=0.220000000 kw = 0.326968 pf=0.92 status=variable vmaxpu=1.5 vminpu=0.5 daily="RU5_DU"  
New "Load.BT_2805359_M2" bus1="UC2805359.1.4" phases=1 conn=Wye model=3 kv=0.220000000 kw = 0.326968 pf=0.92 status=variable vmaxpu=1.5 vminpu=0.5 daily="RU5_DU" 
New "Load.BT_2831931_M1" bus1="UC2831931.1.4" phases=1 conn=Wye model=2 kv=0.220000000 kw = 0.355567 pf=0.92 status=variable vmaxpu=1.5 vminpu=0.5 daily="RU8_DU"  
New "Load.BT_2831931_M2" bus1="UC2831931.1.4" phases=1 conn=Wye model=3 kv=0.220000000 kw = 0.355567 pf=0.92 status=variable vmaxpu=1.5 vminpu=0.5 daily="RU8_DU" 
New "Load.BT_2805222_M1" bus1="UC2805222.1.4" phases=1 conn=Wye model=2 kv=0.220000000 kw = 0.0 pf=0.92 status=variable vmaxpu=1.5 vminpu=0.5 daily="CO6_DU"  
New "Load.BT_2805222_M2" bus1="UC2805222.1.4" phases=1 conn=Wye model=3 kv=0.220000000 kw = 0.0 pf=0.92 status=variable vmaxpu=1.5 vminpu=0.5 daily="CO6_DU" 
New "Load.BT_2817029_M1" bus1="UC2817029.2.4" phases=1 conn=Wye model=2 kv=0.219393102 kw = 0.333538 pf=0.92 status=variable vmaxpu=1.5 vminpu=0.5 daily="RE3_DU"  
New "Load.BT_2817029_M2" bus1="UC2817029.2.4" phases=1 conn=Wye model=3 kv=0.219393102 kw = 0.333538 pf=0.92 status=variable vmaxpu=1.5 vminpu=0.5 daily="RE3_DU" 
New "Load.BT_2831803_M1" bus1="UC2831803.2.4" phases=1 conn=Wye model=2 kv=0.220000000 kw = 0.022861 pf=0.92 status=variable vmaxpu=1.5 vminpu=0.5 daily="RU4_DU"  
New "Load.BT_2831803_M2" bus1="UC2831803.2.4" phases=1 conn=Wye model=3 kv=0.220000000 kw = 0.022861 pf=0.92 status=variable vmaxpu=1.5 vminpu=0.5 daily="RU4_DU" 
New "Load.BT_2833913_M1" bus1="UC2833913.1.2.4" phases=1 conn=Delta model=2 kv=0.440000000 kw = 1.95695 pf=0.92 status=variable vmaxpu=1.5 vminpu=0.5 daily="RU1_DU"  
New "Load.BT_2833913_M2" bus1="UC2833913.1.2.4" phases=1 conn=Delta model=3 kv=0.440000000 kw = 1.95695 pf=0.92 status=variable vmaxpu=1.5 vminpu=0.5 daily="RU1_DU" 
New "Load.BT_2837580_M1" bus1="UC2837580.1.4" phases=1 conn=Wye model=2 kv=0.220000000 kw = 0.134998 pf=0.92 status=variable vmaxpu=1.5 vminpu=0.5 daily="RU5_DU"  
New "Load.BT_2837580_M2" bus1="UC2837580.1.4" phases=1 conn=Wye model=3 kv=0.220000000 kw = 0.134998 pf=0.92 status=variable vmaxpu=1.5 vminpu=0.5 daily="RU5_DU" 
New "Load.BT_2806092_M1" bus1="UC2806092.2.4" phases=1 conn=Wye model=2 kv=0.220000000 kw = 0.4154755 pf=0.92 status=variable vmaxpu=1.5 vminpu=0.5 daily="RU4_DU"  
New "Load.BT_2806092_M2" bus1="UC2806092.2.4" phases=1 conn=Wye model=3 kv=0.220000000 kw = 0.4154755 pf=0.92 status=variable vmaxpu=1.5 vminpu=0.5 daily="RU4_DU" 
New "Load.BT_2817032_M1" bus1="UC2817032.1.4" phases=1 conn=Wye model=2 kv=0.220000000 kw = 0.164827 pf=0.92 status=variable vmaxpu=1.5 vminpu=0.5 daily="RU2_DU"  
New "Load.BT_2817032_M2" bus1="UC2817032.1.4" phases=1 conn=Wye model=3 kv=0.220000000 kw = 0.164827 pf=0.92 status=variable vmaxpu=1.5 vminpu=0.5 daily="RU2_DU" 

New "Load.BT_2833911_M1" bus1="UC2833911.1.4" phases=1 conn=Wye model=2 kv=0.219393102 kw = 0.0 pf=0.92 status=variable vmaxpu=1.5 vminpu=0.5 daily="CO2_DU"  
...